0_rdkit.pdb
 OpenBabel07132316003D

 42 45  0  0  1  0  0  0  0  0999 V2000
   -1.3880   -0.1980   -0.0370 C   0  0  2  0  0  0  0  0  0  0  0  0
   -2.3360    0.8310   -0.6950 C   0  0  0  0  0  0  0  0  0  0  0  0
   -3.7950    0.3500   -0.6030 C   0  0  1  0  0  0  0  0  0  0  0  0
   -3.9290   -1.0010   -1.3260 C   0  0  0  0  0  0  0  0  0  0  0  0
   -3.0050   -2.0420   -0.6720 C   0  0  1  0  0  0  0  0  0  0  0  0
   -1.5480   -1.5540   -0.7630 C   0  0  0  0  0  0  0  0  0  0  0  0
   -3.3920   -2.2060    0.8070 C   0  0  0  0  0  0  0  0  0  0  0  0
   -3.2560   -0.8610    1.5400 C   0  0  1  0  0  0  0  0  0  0  0  0
   -1.7990   -0.3770    1.4430 C   0  0  0  0  0  0  0  0  0  0  0  0
   -4.1790    0.1740    0.8760 C   0  0  0  0  0  0  0  0  0  0  0  0
    0.0100    0.2660   -0.1270 C   0  0  0  0  0  0  0  0  0  0  0  0
    1.1480    0.6440   -0.1990 C   0  0  0  0  0  0  0  0  0  0  0  0
    2.5030    1.0940   -0.2850 C   0  0  0  0  0  0  0  0  0  0  0  0
    3.5250    0.3530    0.3180 C   0  0  0  0  0  0  0  0  0  0  0  0
    4.8630    0.7760    0.2460 C   0  0  0  0  0  0  0  0  0  0  0  0
    5.1470    1.9600   -0.4470 C   0  0  0  0  0  0  0  0  0  0  0  0
    4.1270    2.7020   -1.0510 C   0  0  0  0  0  0  0  0  0  0  0  0
    2.8050    2.2690   -0.9700 C   0  0  0  0  0  0  0  0  0  0  0  0
    5.8920   -0.0500    0.9030 C   0  0  0  0  0  0  0  0  0  0  0  0
    7.2090    0.1920    0.9420 C   0  0  0  0  0  0  0  0  0  0  0  0
   -2.2390    1.8090   -0.2050 H   0  0  0  0  0  0  0  0  0  0  0  0
   -2.0630    0.9860   -1.7470 H   0  0  0  0  0  0  0  0  0  0  0  0
   -4.4570    1.0870   -1.0720 H   0  0  0  0  0  0  0  0  0  0  0  0
   -4.9690   -1.3460   -1.2850 H   0  0  0  0  0  0  0  0  0  0  0  0
   -3.6730   -0.8860   -2.3860 H   0  0  0  0  0  0  0  0  0  0  0  0
   -3.1060   -3.0030   -1.1900 H   0  0  0  0  0  0  0  0  0  0  0  0
   -0.8790   -2.3060   -0.3230 H   0  0  0  0  0  0  0  0  0  0  0  0
   -1.2550   -1.4610   -1.8180 H   0  0  0  0  0  0  0  0  0  0  0  0
   -2.7500   -2.9580    1.2810 H   0  0  0  0  0  0  0  0  0  0  0  0
   -4.4230   -2.5720    0.8860 H   0  0  0  0  0  0  0  0  0  0  0  0
   -3.5350   -0.9840    2.5930 H   0  0  0  0  0  0  0  0  0  0  0  0
   -1.1360   -1.0980    1.9400 H   0  0  0  0  0  0  0  0  0  0  0  0
   -1.6870    0.5700    1.9880 H   0  0  0  0  0  0  0  0  0  0  0  0
   -5.2230   -0.1500    0.9550 H   0  0  0  0  0  0  0  0  0  0  0  0
   -4.1020    1.1350    1.3990 H   0  0  0  0  0  0  0  0  0  0  0  0
    3.2690   -0.5620    0.8480 H   0  0  0  0  0  0  0  0  0  0  0  0
    6.1650    2.3300   -0.5320 H   0  0  0  0  0  0  0  0  0  0  0  0
    4.3670    3.6190   -1.5840 H   0  0  0  0  0  0  0  0  0  0  0  0
    2.0170    2.8510   -1.4420 H   0  0  0  0  0  0  0  0  0  0  0  0
    5.5290   -0.9460    1.4050 H   0  0  0  0  0  0  0  0  0  0  0  0
    7.8720   -0.4940    1.4610 H   0  0  0  0  0  0  0  0  0  0  0  0
    7.6730    1.0530    0.4760 H   0  0  0  0  0  0  0  0  0  0  0  0
  1  2  1  0  0  0  0
  1  6  1  0  0  0  0
  1  9  1  0  0  0  0
  1 11  1  6  0  0  0
  2  3  1  0  0  0  0
  2 21  1  0  0  0  0
  2 22  1  0  0  0  0
  3  4  1  0  0  0  0
  3 10  1  0  0  0  0
  3 23  1  6  0  0  0
  4  5  1  0  0  0  0
  4 24  1  0  0  0  0
  4 25  1  0  0  0  0
  5  6  1  0  0  0  0
  5  7  1  0  0  0  0
  5 26  1  6  0  0  0
  6 27  1  0  0  0  0
  6 28  1  0  0  0  0
  7  8  1  0  0  0  0
  7 29  1  0  0  0  0
  7 30  1  0  0  0  0
  8  9  1  0  0  0  0
  8 10  1  0  0  0  0
  8 31  1  1  0  0  0
  9 32  1  0  0  0  0
  9 33  1  0  0  0  0
 10 34  1  0  0  0  0
 10 35  1  0  0  0  0
 11 12  3  0  0  0  0
 12 13  1  0  0  0  0
 13 14  2  0  0  0  0
 13 18  1  0  0  0  0
 14 15  1  0  0  0  0
 14 36  1  0  0  0  0
 15 16  2  0  0  0  0
 15 19  1  0  0  0  0
 16 17  1  0  0  0  0
 16 37  1  0  0  0  0
 17 18  2  0  0  0  0
 17 38  1  0  0  0  0
 18 39  1  0  0  0  0
 19 20  2  0  0  0  0
 19 40  1  0  0  0  0
 20 41  1  0  0  0  0
 20 42  1  0  0  0  0
M  END
$$$$
