
     RDKit          3D

 42 45  0  0  0  0  0  0  0  0999 V2000
   -1.3879   -0.1983   -0.0373 C   0  0  0  0  0  0  0  0  0  0  0  0
   -2.3364    0.8312   -0.6945 C   0  0  0  0  0  0  0  0  0  0  0  0
   -3.7953    0.3504   -0.6035 C   0  0  0  0  0  0  0  0  0  0  0  0
   -3.9287   -1.0007   -1.3259 C   0  0  0  0  0  0  0  0  0  0  0  0
   -3.0048   -2.0422   -0.6723 C   0  0  0  0  0  0  0  0  0  0  0  0
   -1.5482   -1.5544   -0.7632 C   0  0  0  0  0  0  0  0  0  0  0  0
   -3.3921   -2.2060    0.8070 C   0  0  0  0  0  0  0  0  0  0  0  0
   -3.2559   -0.8610    1.5403 C   0  0  0  0  0  0  0  0  0  0  0  0
   -1.7986   -0.3767    1.4429 C   0  0  0  0  0  0  0  0  0  0  0  0
   -4.1785    0.1744    0.8755 C   0  0  0  0  0  0  0  0  0  0  0  0
    0.0099    0.2661   -0.1266 C   0  0  0  0  0  0  0  0  0  0  0  0
    1.1479    0.6442   -0.1992 C   0  0  0  0  0  0  0  0  0  0  0  0
    2.5030    1.0937   -0.2853 C   0  0  0  0  0  0  0  0  0  0  0  0
    3.5255    0.3532    0.3182 C   0  0  0  0  0  0  0  0  0  0  0  0
    4.8629    0.7757    0.2463 C   0  0  0  0  0  0  0  0  0  0  0  0
    5.1475    1.9605   -0.4470 C   0  0  0  0  0  0  0  0  0  0  0  0
    4.1271    2.7024   -1.0510 C   0  0  0  0  0  0  0  0  0  0  0  0
    2.8052    2.2694   -0.9703 C   0  0  0  0  0  0  0  0  0  0  0  0
    5.8922   -0.0501    0.9033 C   0  0  0  0  0  0  0  0  0  0  0  0
    7.2093    0.1921    0.9418 C   0  0  0  0  0  0  0  0  0  0  0  0
   -2.2385    1.8094   -0.2046 H   0  0  0  0  0  0  0  0  0  0  0  0
   -2.0634    0.9859   -1.7472 H   0  0  0  0  0  0  0  0  0  0  0  0
   -4.4572    1.0872   -1.0719 H   0  0  0  0  0  0  0  0  0  0  0  0
   -4.9692   -1.3457   -1.2853 H   0  0  0  0  0  0  0  0  0  0  0  0
   -3.6726   -0.8856   -2.3862 H   0  0  0  0  0  0  0  0  0  0  0  0
   -3.1059   -3.0027   -1.1897 H   0  0  0  0  0  0  0  0  0  0  0  0
   -0.8788   -2.3059   -0.3231 H   0  0  0  0  0  0  0  0  0  0  0  0
   -1.2549   -1.4613   -1.8177 H   0  0  0  0  0  0  0  0  0  0  0  0
   -2.7498   -2.9581    1.2814 H   0  0  0  0  0  0  0  0  0  0  0  0
   -4.4230   -2.5724    0.8856 H   0  0  0  0  0  0  0  0  0  0  0  0
   -3.5352   -0.9836    2.5927 H   0  0  0  0  0  0  0  0  0  0  0  0
   -1.1357   -1.0978    1.9401 H   0  0  0  0  0  0  0  0  0  0  0  0
   -1.6868    0.5703    1.9881 H   0  0  0  0  0  0  0  0  0  0  0  0
   -5.2235   -0.1496    0.9554 H   0  0  0  0  0  0  0  0  0  0  0  0
   -4.1022    1.1352    1.3993 H   0  0  0  0  0  0  0  0  0  0  0  0
    3.2692   -0.5618    0.8484 H   0  0  0  0  0  0  0  0  0  0  0  0
    6.1651    2.3302   -0.5317 H   0  0  0  0  0  0  0  0  0  0  0  0
    4.3666    3.6187   -1.5843 H   0  0  0  0  0  0  0  0  0  0  0  0
    2.0172    2.8509   -1.4421 H   0  0  0  0  0  0  0  0  0  0  0  0
    5.5292   -0.9459    1.4048 H   0  0  0  0  0  0  0  0  0  0  0  0
    7.8722   -0.4945    1.4605 H   0  0  0  0  0  0  0  0  0  0  0  0
    7.6731    1.0531    0.4762 H   0  0  0  0  0  0  0  0  0  0  0  0
  1  2  1  0
  2  3  1  0
  3  4  1  0
  4  5  1  0
  5  6  1  0
  5  7  1  0
  7  8  1  0
  8  9  1  0
  8 10  1  0
  1 11  1  0
 11 12  3  0
 12 13  1  0
 13 14  2  0
 14 15  1  0
 15 16  2  0
 16 17  1  0
 17 18  2  0
 15 19  1  0
 19 20  2  3
  6  1  1  0
 18 13  1  0
  9  1  1  0
 10  3  1  0
  2 21  1  0
  2 22  1  0
  3 23  1  0
  4 24  1  0
  4 25  1  0
  5 26  1  0
  6 27  1  0
  6 28  1  0
  7 29  1  0
  7 30  1  0
  8 31  1  0
  9 32  1  0
  9 33  1  0
 10 34  1  0
 10 35  1  0
 14 36  1  0
 16 37  1  0
 17 38  1  0
 18 39  1  0
 19 40  1  0
 20 41  1  0
 20 42  1  0
M  END
